Examples/InverterModels/PVSystem2/InvControl2/MonitoredVoltage/Local_voltage_average_VLN_Node.Txt

LINE-GROUND and LINE-LINE VOLTAGES BY BUS & NODE

Bus  Node    VLN (kV)   Angle      pu     Base kV    Node-Node   VLL (kV)  Angle      pu

A .. 1       8.1731 /_    9.2    1.0258    13.800        1-2      14.16 /_   39.2    1.0261
   - 2       8.1812 /_ -110.8    1.0268    13.800        2-3     14.161 /_  -80.8    1.0262
   - 3       8.1748 /_  129.3     1.026    13.800        3-1     14.165 /_  159.2    1.0264
B .. 1       8.2005 /_   12.1    1.0293    13.800        1-2     14.169 /_   41.9    1.0268
   - 2       8.1377 /_ -108.1    1.0214    13.800        2-3     14.047 /_  -78.0    1.0179
   - 3       8.1079 /_  132.2    1.0176    13.800        3-1     14.126 /_  162.3    1.0236
